# generated using pymatgen
data_LiMnTe2
_symmetry_space_group_name_H-M   'P 1'
_cell_length_a   4.31097682
_cell_length_b   4.31097682
_cell_length_c   5.22251802
_cell_angle_alpha   90.00000000
_cell_angle_beta   90.00000000
_cell_angle_gamma   120.00000000
_symmetry_Int_Tables_number   1
_chemical_formula_structural   LiMnTe2
_chemical_formula_sum   'Li1 Mn1 Te2'
_cell_volume   84.05469084
_cell_formula_units_Z   1
loop_
 _symmetry_equiv_pos_site_id
 _symmetry_equiv_pos_as_xyz
  1  'x, y, z'
loop_
 _atom_site_type_symbol
 _atom_site_label
 _atom_site_symmetry_multiplicity
 _atom_site_fract_x
 _atom_site_fract_y
 _atom_site_fract_z
 _atom_site_occupancy
  Mn  Mn0  1  0.33333333  0.66666667  0.47975861  1.0
  Te  Te1  1  0.33333333  0.66666667  -0.01976285  1.0
  Te  Te2  1  0.66666667  0.33333333  0.45389956  1.0
  Li  Li3  1  -0.00000000  -0.00000000  0.73880468  1.0
